1
9
.tran 10u 45m
2
1
Net-(D1-Pad2)
V
1
Net-(Q1-Pad1)
V
